opendss_networks/LV4_36bus/lines.dss
new line.L_411 lineCode=ugsc_16cu_xlpe/nyl/pvc_ug_4w_bundled bus1=B1174 bus2=B144 length=0.00918348238504 units=km phases=4
new line.L_439 lineCode=ugsc_16cu_xlpe/nyl/pvc_ug_4w_bundled bus1=B2116 bus2=B1688 length=0.0228562111745 units=km phases=4
new line.L_512 lineCode=ughv_400al_triplex_ug_4w_bundled bus1=B770 bus2=B3297 length=6.69200664901e-05 units=km phases=4
new line.L_1116 lineCode=ugsc_16cu_xlpe/nyl/pvc_ug_4w_bundled bus1=B144 bus2=B73 length=0.0303106581682 units=km phases=4
new line.L_1556 lineCode=uglv_240al_xlpe/nyl/pvc_ug_4w_bundled bus1=B239 bus2=B211 length=0.194829192622 units=km phases=4
new line.L_1612 lineCode=ugsc_16cu_xlpe/nyl/pvc_ug_4w_bundled bus1=B2993 bus2=B721 length=0.00838260686935 units=km phases=4
new line.L_1820 lineCode=ugsc_16cu_xlpe/nyl/pvc_ug_4w_bundled bus1=B2387 bus2=B139 length=0.0112532366095 units=km phases=4
new line.L_1838 lineCode=ugsc_16cu_xlpe/nyl/pvc_ug_4w_bundled bus1=B657 bus2=B721 length=0.0306083706339 units=km phases=4
new line.L_1886 lineCode=ugsc_16cu_xlpe/nyl/pvc_ug_4w_bundled bus1=B756 bus2=B73 length=0.00771638697358 units=km phases=4
new line.L_2044 lineCode=ughv_400al_triplex_ug_4w_bundled bus1=B439 bus2=B1151 length=0.000206301915236 units=km phases=4
new line.L_2045 lineCode=ughv_400al_triplex_ug_4w_bundled bus1=B439 bus2=B2598 length=0.000346782438634 units=km phases=4
new line.L_2074 lineCode=ughv_400al_triplex_ug_4w_bundled bus1=B439 bus2=B130 length=0.000346782438634 units=km phases=4
new line.L_2469 lineCode=ugsc_16cu_xlpe/nyl/pvc_ug_4w_bundled bus1=B1688 bus2=B2517 length=0.00826215640501 units=km phases=4
new line.L_2869 lineCode=ughv_400al_triplex_ug_4w_bundled bus1=B1198 bus2=B439 length=0.000255748683551 units=km phases=4
new line.L_2977 lineCode=ugsc_16cu_xlpe/nyl/pvc_ug_4w_bundled bus1=B1420 bus2=B211 length=0.00896563467718 units=km phases=4
new line.L_2990 lineCode=ugsc_16cu_xlpe/nyl/pvc_ug_4w_bundled bus1=B715 bus2=B3044 length=0.00782775858453 units=km phases=4
new line.L_2999 lineCode=ugsc_16cu_xlpe/nyl/pvc_ug_4w_bundled bus1=B2116 bus2=B3044 length=0.0326564116839 units=km phases=4
new line.L_3365 lineCode=ugsc_16cu_xlpe/nyl/pvc_ug_4w_bundled bus1=B657 bus2=B1500 length=0.00910336394870 units=km phases=4
new line.L_3475 lineCode=ugsc_16cu_xlpe/nyl/pvc_ug_4w_bundled bus1=B2922 bus2=B1252 length=0.0334483315375 units=km phases=4
new line.L_3550 lineCode=ugsc_16cu_xlpe/nyl/pvc_ug_4w_bundled bus1=B1174 bus2=B2922 length=0.0340632409032 units=km phases=4
new line.L_3639 lineCode=ugsc_16cu_xlpe/nyl/pvc_ug_4w_bundled bus1=B211 bus2=B2387 length=0.0227587898486 units=km phases=4
new line.L_3689 lineCode=ugsc_16cu_xlpe/nyl/pvc_ug_4w_bundled bus1=B2387 bus2=B657 length=0.0641674563209 units=km phases=4
new line.L_3902 lineCode=ugsc_16cu_xlpe/nyl/pvc_ug_4w_bundled bus1=B1252 bus2=B708 length=0.00774830908465 units=km phases=4
new line.L_4058 lineCode=ughv_400al_triplex_ug_4w_bundled bus1=B439 bus2=B97 length=0.000557911233957 units=km phases=4
new line.L_4081 lineCode=ughv_400al_triplex_ug_4w_bundled bus1=B1609 bus2=B1756 length=0.000255748683198 units=km phases=4
new line.L_4121 lineCode=ugsc_16cu_xlpe/nyl/pvc_ug_4w_bundled bus1=B263 bus2=B2922 length=0.00771722354010 units=km phases=4
new line.L_4366 lineCode=ugsc_16cu_xlpe/nyl/pvc_ug_4w_bundled bus1=B721 bus2=B2116 length=0.0397415099588 units=km phases=4
new line.L_4417 lineCode=ugsc_16cu_xlpe/nyl/pvc_ug_4w_bundled bus1=B2116 bus2=B1174 length=0.0211409267145 units=km phases=4
new line.L_4614 lineCode=ugsc_16cu_xlpe/nyl/pvc_ug_4w_bundled bus1=B708 bus2=B3133 length=0.0143180388642 units=km phases=4
